/*--------------------------------*- C++ -*----------------------------------*\
| =========                 |                                                 |
| \\      /  F ield         | OpenFOAM: The Open Source CFD Toolbox           |
|  \\    /   O peration     | Version:  1.7.1                                 |
|   \\  /    A nd           | Web:      www.OpenFOAM.com                      |
|    \\/     M anipulation  |                                                 |
\*---------------------------------------------------------------------------*/
FoamFile
{
    version     2.0;
    format      ascii;
    class       dictionary;
    object      blockMeshDict;
}
// * * * * * * * * * * * * * * * * * * * * * * * * * * * * * * * * * * * * * //

convertToMeters 0.001; // dimensions are in mm //

//Going clockwise//
vertices       
(
    (30 0 0) 		// 0
    (38 0 0) 		// 1 
    (38 30 0) 		// 2
    (68 30 0) 		// 3
    (68 42.7 0) 	// 4
    (38 42.7 0) 	// 5
    (38 40.65 0) 	// 6
    (30 40.65 0) 	// 7
    (0 40.65 0) 	// 8
    (0 38.95 0) 	// 9
    (30 38.95 0) 	// 10 
    (30 38.05 0) 	// 11
    (0 38.05 0) 	// 12
    (0 36.35 0) 	// 13
    (30 36.35 0) 	// 14
// z dimension //
    (30 0 1) 		// 15
    (38 0 1) 		// 16
    (38 30 1) 		// 17
    (68 30 1) 		// 18
    (68 42.7 1) 	// 19
    (38 42.7 1) 	// 20
    (38 40.65 1) 	// 21
    (30 40.65 1) 	// 22
    (0 40.65 1) 	// 23
    (0 38.95 1) 	// 24
    (30 38.95 1) 	// 25
    (30 38.05 1) 	// 26
    (0 38.05 1) 	// 27
    (0 36.35 1) 	// 28
    (30 36.35 1) 	// 29
);

blocks          
(
    hex (12 11 26 27 13 14 29 28) (50 1 10) simpleGrading (1 1 1)
    hex (8 7 22 23 9 10 25 24) (50 1 10) simpleGrading (1 1 1)
    hex (7 6 21 22 0 1 16 15) (20 1 50) simpleGrading (1 1 1)
    hex (5 4 19 20 2 3 18 17) (20 1 50) simpleGrading (1 1 1)
);

edges           
(
);

patches         
(
	patch // patch 0
	inlets
	(
		(9 24 23 8)
		(13 28 27 12)
	)

	patch // patch 1
	walls
	(
		// block 0
		(12 27 26 11) // bottom
		(13 14 29 28) //top
		// block 1
		(8 23 22 7) // bottom
		(9 10 25 24) // top
		// block 2
		(0 1 16 15) // top
		(7 22 21 6) // bottom
		// block 3
		(2 3 18 17) // top
		(5 20 19 4) // bottom
	)

	patch // 2
	outlet
	(
		(18 3 4 19) // right
	)

	patch // 3
	tubeoutlet
	(
		(14 11 26 29)
		(10 7 22 25)
	)

	patch // 4
	mainleft
	(
		(7 0 15 22) // left
	)

	patch // 5
	outleft
	(
		(2 17 20 5) // left
	)

	patch // 6
	mainright
	(
		(16 1 6 21) // right
	)

);

mergePatchPairs 
(
	( tubeoutlet mainleft )
	( outleft mainright )
);

// ************************************************************************* //
