/*--------------------------------*- C++ -*----------------------------------*\
| =========                 |                                                 |
| \\      /  F ield         | OpenFOAM: The Open Source CFD Toolbox           |
|  \\    /   O peration     | Version:  1.7.1                                 |
|   \\  /    A nd           | Web:      www.OpenFOAM.com                      |
|    \\/     M anipulation  |                                                 |
\*---------------------------------------------------------------------------*/
FoamFile
{
    version     2.0;
    format      ascii;
    class       volVectorField;
    object      U;
}
// * * * * * * * * * * * * * * * * * * * * * * * * * * * * * * * * * * * * * //

dimensions      [0 1 -1 0 0 0 0];

internalField   uniform (0 0 0);

boundaryField
{
    inlets
    {
        type            fixedValue;
        value           uniform (0.0001 0 0);
    }

    outlet
    {
        type            zeroGradient;
    }

    walls      
    {
        type            fixedValue;
        value           uniform (0 0 0);
    }
    
    outleft
    {
        type            fixedValue;
        value           uniform (0 0 0);
    }

    mainleft
    {
        type            fixedValue;
        value           uniform (0 0 0);
    }
    
    mainright
    {
        type            fixedValue;
        value           uniform (0 0 0);
    }

}

// ************************************************************************* //
